#######################################################################
#
#                 Cambridge Crystallographic Data Centre
#                                CCDC
#
#######################################################################
#
# If this CIF has been generated from an entry in the Cambridge
# Structural Database, then it will include bibliographic, chemical,
# crystal, experimental, refinement or atomic coordinate data resulting
# from the CCDC's data processing and validation procedures.
#
#######################################################################

data_job_00001
_symmetry_cell_setting           triclinic
_symmetry_space_group_name_H-M   'P 1'
_symmetry_Int_Tables_number      1
_space_group_name_Hall           'P 1'
loop_
_symmetry_equiv_pos_site_id
_symmetry_equiv_pos_as_xyz
1 x,y,z
_cell_length_a                   12.7573
_cell_length_b                   7.4980
_cell_length_c                   12.7591
_cell_angle_alpha                90.0000
_cell_angle_beta                 59.9998
_cell_angle_gamma                90.0000
_cell_volume                     1056.95
loop_
_atom_site_label
_atom_site_type_symbol
_atom_site_fract_x
_atom_site_fract_y
_atom_site_fract_z
_atom_site_U_iso_or_equiv
_atom_site_thermal_displace_type
C1 C 0.33327 0.57807 0.83334 0.0000 Uiso
C2 C 0.30402 0.65661 0.74067 0.0000 Uiso
C3 C 0.27944 0.55978 0.66274 0.0000 Uiso
C4 C 0.25484 0.65645 0.58471 0.0000 Uiso
C5 C 0.45521 0.65662 0.80409 0.0000 Uiso
C6 C 0.55773 0.55978 0.77950 0.0000 Uiso
C7 C 0.66039 0.65645 0.75487 0.0000 Uiso
C8 C 0.24060 0.65661 0.95526 0.0000 Uiso
C9 C 0.16270 0.55978 1.05778 0.0000 Uiso
C10 C 0.08469 0.65645 1.16044 0.0000 Uiso
H11 H 0.33327 0.43266 0.83334 0.0000 Uiso
H12 H 0.27946 0.41524 0.66276 0.0000 Uiso
H13 H 0.55770 0.41524 0.77952 0.0000 Uiso
H14 H 0.16273 0.41524 1.05775 0.0000 Uiso
H15 H 0.21985 0.47830 0.47361 0.0000 Uiso
H16 H 0.80652 0.47830 0.71984 0.0000 Uiso
H17 H -0.02636 0.47830 1.30655 0.0000 Uiso
N18 N 0.22721 0.60380 0.49703 0.0000 Uiso
N19 N 0.77572 0.60380 0.72723 0.0000 Uiso
N20 N -0.00293 0.60380 1.27576 0.0000 Uiso
C61 C 0.33327 0.92193 0.83334 0.0000 Uiso
C62 C 0.30402 0.84339 0.74067 0.0000 Uiso
C63 C 0.27944 0.94022 0.66274 0.0000 Uiso
C64 C 0.25484 0.84355 0.58471 0.0000 Uiso
C65 C 0.45521 0.84338 0.80409 0.0000 Uiso
C66 C 0.55773 0.94022 0.77950 0.0000 Uiso
C67 C 0.66039 0.84355 0.75487 0.0000 Uiso
C68 C 0.24060 0.84339 0.95526 0.0000 Uiso
C69 C 0.16270 0.94022 1.05778 0.0000 Uiso
C70 C 0.08469 0.84355 1.16044 0.0000 Uiso
H71 H 0.33327 1.06734 0.83334 0.0000 Uiso
H72 H 0.27946 1.08476 0.66276 0.0000 Uiso
H73 H 0.55770 1.08476 0.77952 0.0000 Uiso
H74 H 0.16273 1.08476 1.05775 0.0000 Uiso
H75 H 0.21985 1.02170 0.47361 0.0000 Uiso
H76 H 0.80652 1.02170 0.71984 0.0000 Uiso
H77 H -0.02636 1.02170 1.30655 0.0000 Uiso
N78 N 0.22721 0.89620 0.49703 0.0000 Uiso
N79 N 0.77572 0.89620 0.72723 0.0000 Uiso
N80 N -0.00293 0.89620 1.27576 0.0000 Uiso
C81 C 0.20948 0.75000 0.44077 0.0000 Uiso
C82 C 0.84972 0.75000 0.70949 0.0000 Uiso
C83 C -0.05918 0.75000 1.34976 0.0000 Uiso
O84 O 0.18448 0.75000 0.36136 0.0000 Uiso
O85 O 0.95416 0.75000 0.68444 0.0000 Uiso
O86 O -0.13856 0.75000 1.45418 0.0000 Uiso
C21 C 0.66673 0.07807 0.16666 0.0000 Uiso
C22 C 0.69598 0.15661 0.25933 0.0000 Uiso
C23 C 0.72056 0.05978 0.33726 0.0000 Uiso
C24 C 0.74516 0.15645 0.41529 0.0000 Uiso
C25 C 0.54479 0.15662 0.19591 0.0000 Uiso
C26 C 0.44227 0.05978 0.22050 0.0000 Uiso
C27 C 0.33961 0.15645 0.24513 0.0000 Uiso
C28 C 0.75940 0.15661 0.04474 0.0000 Uiso
C29 C 0.83730 0.05978 -0.05778 0.0000 Uiso
C30 C 0.91531 0.15645 -0.16044 0.0000 Uiso
H31 H 0.66673 -0.06734 0.16666 0.0000 Uiso
H32 H 0.72054 -0.08476 0.33724 0.0000 Uiso
H33 H 0.44230 -0.08476 0.22048 0.0000 Uiso
H34 H 0.83727 -0.08476 -0.05775 0.0000 Uiso
H35 H 0.78015 -0.02170 0.52639 0.0000 Uiso
H36 H 0.19348 -0.02170 0.28016 0.0000 Uiso
H37 H 1.02636 -0.02170 -0.30655 0.0000 Uiso
N38 N 0.77279 0.10380 0.50297 0.0000 Uiso
N39 N 0.22428 0.10380 0.27277 0.0000 Uiso
N40 N 1.00293 0.10380 -0.27576 0.0000 Uiso
C41 C 0.66673 0.42193 0.16666 0.0000 Uiso
C42 C 0.69598 0.34339 0.25933 0.0000 Uiso
C43 C 0.72056 0.44022 0.33726 0.0000 Uiso
C44 C 0.74516 0.34355 0.41529 0.0000 Uiso
C45 C 0.54479 0.34338 0.19591 0.0000 Uiso
C46 C 0.44227 0.44022 0.22050 0.0000 Uiso
C47 C 0.33961 0.34355 0.24513 0.0000 Uiso
C48 C 0.75940 0.34339 0.04474 0.0000 Uiso
C49 C 0.83730 0.44022 -0.05778 0.0000 Uiso
C50 C 0.91531 0.34355 -0.16044 0.0000 Uiso
H51 H 0.66673 0.56734 0.16666 0.0000 Uiso
H52 H 0.72054 0.58476 0.33724 0.0000 Uiso
H53 H 0.44230 0.58476 0.22048 0.0000 Uiso
H54 H 0.83727 0.58476 -0.05775 0.0000 Uiso
H55 H 0.78015 0.52170 0.52639 0.0000 Uiso
H56 H 0.19348 0.52170 0.28016 0.0000 Uiso
H57 H 1.02636 0.52170 -0.30655 0.0000 Uiso
N58 N 0.77279 0.39620 0.50297 0.0000 Uiso
N59 N 0.22428 0.39620 0.27277 0.0000 Uiso
N60 N 1.00293 0.39620 -0.27576 0.0000 Uiso
C87 C 0.79052 0.25000 0.55923 0.0000 Uiso
C88 C 0.15028 0.25000 0.29051 0.0000 Uiso
C89 C 1.05918 0.25000 -0.34976 0.0000 Uiso
O90 O 0.81552 0.25000 0.63864 0.0000 Uiso
O91 O 0.04584 0.25000 0.31556 0.0000 Uiso
O92 O 1.13856 0.25000 -0.45418 0.0000 Uiso
loop_
_geom_bond_atom_site_label_1
_geom_bond_atom_site_label_2
_geom_bond_site_symmetry_1
_geom_bond_site_symmetry_2
C1 C2 1_555 1_555
C1 C5 1_555 1_555
C1 C8 1_555 1_555
C1 H11 1_555 1_555
C2 C3 1_555 1_555
C2 C62 1_555 1_555
C3 C4 1_555 1_555
C3 H12 1_555 1_555
C4 N18 1_555 1_555
C4 C64 1_555 1_555
C5 C6 1_555 1_555
C5 C65 1_555 1_555
C6 C7 1_555 1_555
C6 H13 1_555 1_555
C7 N19 1_555 1_555
C7 C67 1_555 1_555
C8 C9 1_555 1_555
C8 C68 1_555 1_555
C9 C10 1_555 1_555
C9 H14 1_555 1_555
C10 N20 1_555 1_555
C10 C70 1_555 1_555
H15 N18 1_555 1_555
H16 N19 1_555 1_555
H17 N20 1_555 1_555
N18 C81 1_555 1_555
N19 C82 1_555 1_555
N20 C83 1_555 1_555
C61 C62 1_555 1_555
C61 C65 1_555 1_555
C61 C68 1_555 1_555
C61 H71 1_555 1_555
C62 C63 1_555 1_555
C63 C64 1_555 1_555
C63 H72 1_555 1_555
C64 N78 1_555 1_555
C65 C66 1_555 1_555
C66 C67 1_555 1_555
C66 H73 1_555 1_555
C67 N79 1_555 1_555
C68 C69 1_555 1_555
C69 C70 1_555 1_555
C69 H74 1_555 1_555
C70 N80 1_555 1_555
H75 N78 1_555 1_555
H76 N79 1_555 1_555
H77 N80 1_555 1_555
N78 C81 1_555 1_555
N79 C82 1_555 1_555
N80 C83 1_555 1_555
C81 O84 1_555 1_555
C82 O85 1_555 1_555
C83 O86 1_555 1_555
C21 C22 1_555 1_555
C21 C25 1_555 1_555
C21 C28 1_555 1_555
C21 H31 1_555 1_555
C22 C23 1_555 1_555
C22 C42 1_555 1_555
C23 C24 1_555 1_555
C23 H32 1_555 1_555
C24 N38 1_555 1_555
C24 C44 1_555 1_555
C25 C26 1_555 1_555
C25 C45 1_555 1_555
C26 C27 1_555 1_555
C26 H33 1_555 1_555
C27 N39 1_555 1_555
C27 C47 1_555 1_555
C28 C29 1_555 1_555
C28 C48 1_555 1_555
C29 C30 1_555 1_555
C29 H34 1_555 1_555
C30 N40 1_555 1_555
C30 C50 1_555 1_555
H35 N38 1_555 1_555
H36 N39 1_555 1_555
H37 N40 1_555 1_555
N38 C87 1_555 1_555
N39 C88 1_555 1_555
N40 C89 1_555 1_555
C41 C42 1_555 1_555
C41 C45 1_555 1_555
C41 C48 1_555 1_555
C41 H51 1_555 1_555
C42 C43 1_555 1_555
C43 C44 1_555 1_555
C43 H52 1_555 1_555
C44 N58 1_555 1_555
C45 C46 1_555 1_555
C46 C47 1_555 1_555
C46 H53 1_555 1_555
C47 N59 1_555 1_555
C48 C49 1_555 1_555
C49 C50 1_555 1_555
C49 H54 1_555 1_555
C50 N60 1_555 1_555
H55 N58 1_555 1_555
H56 N59 1_555 1_555
H57 N60 1_555 1_555
N58 C87 1_555 1_555
N59 C88 1_555 1_555
N60 C89 1_555 1_555
C87 O90 1_555 1_555
C88 O91 1_555 1_555
C89 O92 1_555 1_555

#END

